#	Generated by SAMSON 2020 R3 (1.0.0)
#	Name: Baicalein
#	Creation time: Tue Jan 26 16:42:35 2021

@<TRIPOS>MOLECULE
Molecule Name
30	32	0	0	0
SMALL
USER_CHARGES
@<TRIPOS>ATOM
       1 O1           0.4895    0.8121   -0.0497 O          1 MOL	  
       2 O2          -3.4425   -2.0081    0.1208 O          1 MOL	  
       3 O3          -5.0032    0.2257   -0.0315 O          1 MOL	  
       4 O4          -3.8441    2.7306   -0.1903 O          1 MOL	  
       5 O5          -1.0157   -2.9664    0.1876 O          1 MOL	  
       6 C6          -1.4494   -0.6482    0.0391 C          1 MOL	  
       7 C7          -0.8683    0.6161   -0.0414 C          1 MOL	  
       8 C8           1.3175   -0.2970    0.0333 C          1 MOL	  
       9 C9          -2.8391   -0.7881    0.0429 C          1 MOL	  
      10 C10         -0.5742   -1.8277    0.1181 C          1 MOL	  
      11 C11          0.8789   -1.5637    0.1082 C          1 MOL	  
      12 C12          2.7581    0.0266    0.0103 C          1 MOL	  
      13 C13         -1.6759    1.7510   -0.1191 C          1 MOL	  
      14 C14         -3.6445    0.3488   -0.0345 C          1 MOL	  
      15 C15         -3.0644    1.6155   -0.1154 C          1 MOL	  
      16 C16          3.6711   -0.8734   -0.5451 C          1 MOL	  
      17 C17          3.2148    1.2343    0.5441 C          1 MOL	  
      18 C18          5.0318   -0.5676   -0.5666 C          1 MOL	  
      19 C19          4.5755    1.5403    0.5223 C          1 MOL	  
      20 C20          5.4841    0.6393   -0.0331 C          1 MOL	  
      21 H21          1.5280   -2.4280    0.1854 H          1 MOL	  
      22 H22         -1.2261    2.7386   -0.1821 H          1 MOL	  
      23 H23          3.3569   -1.8136   -0.9906 H          1 MOL	  
      24 H24          2.5301    1.9512    0.9907 H          1 MOL	  
      25 H25          5.7391   -1.2666   -1.0034 H          1 MOL	  
      26 H26          4.9282    2.4791    0.9391 H          1 MOL	  
      27 H27          6.5435    0.8777   -0.0508 H          1 MOL	  
      28 H28         -2.7823   -2.7156    0.1737 H          1 MOL	  
      29 H29         -5.2255   -0.7196    0.0297 H          1 MOL	  
      30 H30         -4.7766    2.4531   -0.1755 H          1 MOL	  
@<TRIPOS>BOND
1	1	7	1	
2	1	8	1	
3	2	9	1	
4	2	28	1	
5	3	14	1	
6	3	29	1	
7	4	15	1	
8	4	30	1	
9	5	10	2	
10	6	7	2	
11	6	9	1	
12	6	10	1	
13	7	13	1	
14	8	11	2	
15	8	12	1	
16	9	14	2	
17	10	11	1	
18	11	21	1	
19	12	16	2	
20	12	17	1	
21	13	15	2	
22	13	22	1	
23	14	15	1	
24	16	18	1	
25	16	23	1	
26	17	19	2	
27	17	24	1	
28	18	20	2	
29	18	25	1	
30	19	20	1	
31	19	26	1	
32	20	27	1	
