# created with PyMOL 2.4.0
@<TRIPOS>MOLECULE
ligand
79 82 1                 
SMALL
USER_CHARGES
@<TRIPOS>ATOM
1	  C1	7.563	-2.134	-0.242	C.3	1	UNL1	0.000	
2	  N1	7.737	-0.741	-0.280	N.3	1	UNL1	0.000	
3	  O1	3.617	-0.989	0.404	O.3	1	UNL1	0.000	
4	  C2	8.701	-0.123	0.530	C.3	1	UNL1	0.000	
5	  N2	5.311	0.503	0.374	N.3	1	UNL1	0.000	
6	  O2	-0.325	1.637	-0.629	O.3	1	UNL1	0.000	
7	  C3	7.060	0.010	-1.259	C.3	1	UNL1	0.000	
8	  N3	3.224	1.262	-0.309	N.3	1	UNL1	0.000	
9	  C4	5.566	-0.044	-0.923	C.3	1	UNL1	0.000	
10	  N4	-3.945	0.047	0.512	N.3	1	UNL1	0.000	
11	  C5	3.806	0.373	0.558	C.3	1	UNL1	0.000	
12	  C6	1.932	1.663	-0.299	C.3	1	UNL1	0.000	
13	  C7	0.787	0.804	-0.732	C.3	1	UNL1	0.000	
14	  C8	0.683	-0.458	-0.001	C.3	1	UNL1	0.000	
15	  C9	-0.679	-1.108	0.043	C.3	1	UNL1	0.000	
16	 C10	-1.766	-0.295	-0.642	C.3	1	UNL1	0.000	
17	 C11	-1.528	1.155	-0.386	C.3	1	UNL1	0.000	
18	 C12	-1.992	1.339	1.072	C.3	1	UNL1	0.000	
19	 C13	-1.421	2.575	1.677	C.3	1	UNL1	0.000	
20	 C14	-2.265	3.153	2.767	C.3	1	UNL1	0.000	
21	 C15	-1.978	2.550	4.115	C.3	1	UNL1	0.000	
22	 C16	-3.717	3.224	2.446	C.3	1	UNL1	0.000	
23	 C17	-4.228	1.840	2.133	C.3	1	UNL1	0.000	
24	 C18	-3.474	1.316	0.946	C.3	1	UNL1	0.000	
25	 C19	-3.114	-0.789	-0.281	C.3	1	UNL1	0.000	
26	 C20	-3.964	-1.120	-1.518	C.3	1	UNL1	0.000	
27	 C21	-5.238	-1.734	-1.026	C.3	1	UNL1	0.000	
28	 C22	-5.149	-3.241	-1.362	C.3	1	UNL1	0.000	
29	 C23	-5.284	-3.328	-2.849	C.3	1	UNL1	0.000	
30	 C24	-4.137	-2.646	-3.495	C.3	1	UNL1	0.000	
31	 C25	-3.242	-1.878	-2.562	C.3	1	UNL1	0.000	
32	  F1	-0.649	2.762	4.474	 F	1	UNL1	0.000	
33	  F2	-2.728	3.244	5.044	 F	1	UNL1	0.000	
34	  F3	-2.300	1.232	4.231	 F	1	UNL1	0.000	
35	  H1	7.554	-2.637	-1.235	 H	1	UNL1	0.000	
36	  H2	8.275	-2.633	0.454	 H	1	UNL1	0.000	
37	  H3	6.536	-2.348	0.191	 H	1	UNL1	0.000	
38	  H4	8.579	-0.466	1.591	 H	1	UNL1	0.000	
39	  H5	8.484	0.973	0.570	 H	1	UNL1	0.000	
40	  H6	9.746	-0.230	0.200	 H	1	UNL1	0.000	
41	  H7	7.378	1.049	-1.370	 H	1	UNL1	0.000	
42	  H8	7.226	-0.475	-2.263	 H	1	UNL1	0.000	
43	  H9	5.266	-1.120	-0.995	 H	1	UNL1	0.000	
44	 H10	5.028	0.515	-1.697	 H	1	UNL1	0.000	
45	 H11	5.682	-0.069	1.164	 H	1	UNL1	0.000	
46	 H12	3.685	0.638	1.648	 H	1	UNL1	0.000	
47	 H13	3.576	-1.405	1.304	 H	1	UNL1	0.000	
48	 H14	3.928	1.940	-0.768	 H	1	UNL1	0.000	
49	 H15	1.849	2.680	-0.870	 H	1	UNL1	0.000	
50	 H16	1.639	2.092	0.757	 H	1	UNL1	0.000	
51	 H17	0.897	0.632	-1.849	 H	1	UNL1	0.000	
52	 H18	1.129	-0.374	1.007	 H	1	UNL1	0.000	
53	 H19	1.317	-1.215	-0.561	 H	1	UNL1	0.000	
54	 H20	-0.945	-1.270	1.105	 H	1	UNL1	0.000	
55	 H21	-0.669	-2.127	-0.425	 H	1	UNL1	0.000	
56	 H22	-1.544	-0.433	-1.744	 H	1	UNL1	0.000	
57	 H23	-2.250	1.696	-1.074	 H	1	UNL1	0.000	
58	 H24	-1.713	0.478	1.708	 H	1	UNL1	0.000	
59	 H25	-1.154	3.307	0.904	 H	1	UNL1	0.000	
60	 H26	-0.437	2.282	2.146	 H	1	UNL1	0.000	
61	 H27	-1.921	4.237	2.855	 H	1	UNL1	0.000	
62	 H28	-4.244	3.687	3.307	 H	1	UNL1	0.000	
63	 H29	-3.844	3.839	1.525	 H	1	UNL1	0.000	
64	 H30	-5.285	1.998	1.786	 H	1	UNL1	0.000	
65	 H31	-4.203	1.152	2.997	 H	1	UNL1	0.000	
66	 H32	-3.721	2.034	0.104	 H	1	UNL1	0.000	
67	 H33	-4.935	0.183	0.128	 H	1	UNL1	0.000	
68	 H34	-3.015	-1.757	0.249	 H	1	UNL1	0.000	
69	 H35	-4.263	-0.113	-1.949	 H	1	UNL1	0.000	
70	 H36	-5.363	-1.735	0.079	 H	1	UNL1	0.000	
71	 H37	-6.147	-1.371	-1.510	 H	1	UNL1	0.000	
72	 H38	-5.965	-3.801	-0.888	 H	1	UNL1	0.000	
73	 H39	-4.135	-3.630	-1.098	 H	1	UNL1	0.000	
74	 H40	-6.222	-2.781	-3.119	 H	1	UNL1	0.000	
75	 H41	-5.454	-4.365	-3.207	 H	1	UNL1	0.000	
76	 H42	-3.508	-3.416	-3.989	 H	1	UNL1	0.000	
77	 H43	-4.490	-1.991	-4.323	 H	1	UNL1	0.000	
78	 H44	-2.725	-1.127	-3.237	 H	1	UNL1	0.000	
79	 H45	-2.485	-2.581	-2.137	 H	1	UNL1	0.000	
@<TRIPOS>BOND
1 1 2 1
2 1 35 1
3 1 36 1
4 1 37 1
5 2 4 1
6 2 7 1
7 3 47 1
8 4 38 1
9 4 39 1
10 4 40 1
11 5 11 1
12 5 45 1
13 7 9 1
14 7 41 1
15 7 42 1
16 8 12 1
17 8 48 1
18 5 9 1
19 9 43 1
20 9 44 1
21 10 25 1
22 10 67 1
23 3 11 1
24 8 11 1
25 11 46 1
26 12 13 1
27 12 49 1
28 12 50 1
29 6 13 1
30 13 14 1
31 13 51 1
32 14 15 1
33 14 52 1
34 14 53 1
35 15 16 1
36 15 54 1
37 15 55 1
38 16 17 1
39 16 25 1
40 16 56 1
41 6 17 1
42 17 18 1
43 17 57 1
44 18 19 1
45 18 24 1
46 18 58 1
47 19 20 1
48 19 59 1
49 19 60 1
50 20 21 1
51 20 22 1
52 20 61 1
53 21 32 1
54 21 33 1
55 21 34 1
56 22 23 1
57 22 62 1
58 22 63 1
59 23 24 1
60 23 64 1
61 23 65 1
62 10 24 1
63 24 66 1
64 25 26 1
65 25 68 1
66 26 27 1
67 26 31 1
68 26 69 1
69 27 28 1
70 27 70 1
71 27 71 1
72 28 29 1
73 28 72 1
74 28 73 1
75 29 30 1
76 29 74 1
77 29 75 1
78 30 31 1
79 30 76 1
80 30 77 1
81 31 78 1
82 31 79 1
@<TRIPOS>SUBSTRUCTURE
1	UNL1	1	GROUP	1 ****	UNL
