@<TRIPOS>MOLECULE
generated by VMD
  101  103    1    0    0
SMALL
USER_CHARGES
****
Energy = 0

@<TRIPOS>ATOM
      1  N        -12.5590    6.6780   72.2540  NH1    2  ALA        -0.470000
      2  HN       -12.9040    6.5480   73.2180    H    2  ALA        0.310000
      3  CA       -13.1350    7.7570   71.4580  CT1    2  ALA        0.070000
      4  HA       -13.5530    7.3450   70.5120  HB1    2  ALA        0.090000
      5  CB       -14.3160    8.3790   72.2160  CT3    2  ALA        -0.270000
      6  HB1      -15.0830    7.5980   72.4130  HA3    2  ALA        0.090000
      7  HB2      -13.9850    8.8080   73.1850  HA3    2  ALA        0.090000
      8  HB3      -14.7840    9.1780   71.6030  HA3    2  ALA        0.090000
      9  C        -12.1130    8.8400   71.1770    C    2  ALA        0.510000
     10  O        -11.4810    9.3110   72.1140    O    2  ALA        -0.510000
     11  N        -11.9380    9.3320   69.9120  NH1    3  VAL        -0.470000
     12  HN       -12.5250    8.9530   69.1500    H    3  VAL        0.310000
     13  CA       -10.9900   10.3900   69.5840  CT1    3  VAL        0.070000
     14  HA       -10.3780   10.6460   70.4780  HB1    3  VAL        0.090000
     15  CB       -10.0050    9.9100   68.4830  CT1    3  VAL        -0.090000
     16  HB       -10.5810    9.6490   67.5680  HA1    3  VAL        0.090000
     17  CG1       -8.9900   11.0080   68.1180  CT3    3  VAL        -0.270000
     18 HG11       -8.3060   10.6480   67.3200  HA3    3  VAL        0.090000
     19 HG12       -9.5040   11.9130   67.7360  HA3    3  VAL        0.090000
     20 HG13       -8.3850   11.2940   69.0050  HA3    3  VAL        0.090000
     21  CG2       -9.2400    8.6580   68.9450  CT3    3  VAL        -0.270000
     22 HG21       -8.5500    8.3120   68.1450  HA3    3  VAL        0.090000
     23 HG22       -8.6440    8.8770   69.8580  HA3    3  VAL        0.090000
     24 HG23       -9.9400    7.8280   69.1680  HA3    3  VAL        0.090000
     25  C        -11.7470   11.6430   69.1540    C    3  VAL        0.510000
     26  O        -12.4970   11.6040   68.1880    O    3  VAL        -0.510000
     27  N        -11.5740   12.8090   69.8460  NH1    4  LEU        -0.470000
     28  HN       -10.9320   12.7820   70.6550    H    4  LEU        0.310000
     29  CA       -12.2260   14.0780   69.5290  CT1    4  LEU        0.070000
     30  HA       -13.3240   13.9410   69.5720  HB1    4  LEU        0.090000
     31  CB       -11.8690   15.1460   70.6030  CT2    4  LEU        -0.180000
     32  HB1      -10.8330   14.9830   70.9730  HA2    4  LEU        0.090000
     33  HB2      -11.8760   16.1610   70.1460  HA2    4  LEU        0.090000
     34  CG       -12.9180   15.2180   71.7520  CT1    4  LEU        -0.090000
     35  HG       -13.8480   15.6520   71.3180  HA1    4  LEU        0.090000
     36  CD1      -13.3110   13.8590   72.3590  CT3    4  LEU        -0.270000
     37 HD11      -14.0880   14.0150   73.1390  HA3    4  LEU        0.090000
     38 HD12      -13.7710   13.1930   71.6000  HA3    4  LEU        0.090000
     39 HD13      -12.4360   13.3490   72.8080  HA3    4  LEU        0.090000
     40  CD2      -12.4240   16.1510   72.8640  CT3    4  LEU        -0.270000
     41 HD21      -13.2160   16.2820   73.6320  HA3    4  LEU        0.090000
     42 HD22      -11.5240   15.7200   73.3540  HA3    4  LEU        0.090000
     43 HD23      -12.1670   17.1510   72.4550  HA3    4  LEU        0.090000
     44  C        -11.9160   14.5760   68.1180    C    4  LEU        0.510000
     45  O        -10.7640   14.6560   67.7290    O    4  LEU        -0.510000
     46  C4       -10.2530    3.6010   72.3240   C4    1  02J        0.000000
     47  C5       -10.1220    2.9320   73.4660   C5    1  02J        0.000000
     48  C6        -9.3460    1.6700   73.6770   C6    1  02J        0.000000
     49  O1       -10.8150    3.5600   74.4390   O1    1  02J        0.000000
     50  N2       -11.4040    4.6200   73.9240   N2    1  02J        0.000000
     51  C3       -11.1180    4.7190   72.6790   C3    1  02J        0.000000
     52  C41      -11.6260    5.7970   71.7900  C41    1  02J        0.000000
     53  O42      -11.2260    5.8660   70.6370  O42    1  02J        0.000000
     54  C19      -13.0640   15.4360   65.9510  C19    5  PJE        0.000000
     55  C20      -12.6210   16.9020   65.6540  C20    5  PJE        0.000000
     56  C21      -11.1780   17.2470   65.2780  C21    5  PJE        0.000000
     57  C22      -10.1660   17.3090   66.3750  C22    5  PJE        0.000000
     58  C25      -12.9210   14.3250   64.8660  C25    5  PJE        0.000000
     59  C26      -11.6040   13.7400   64.2740  C26    5  PJE        0.000000
     60  C27      -10.6110   13.0840   65.2030  C27    5  PJE        0.000000
     61  C28       -9.7990   12.2630   64.2170  C28    5  PJE        0.000000
     62  N6       -10.7820   11.6200   63.3550   N6    5  PJE        0.000000
     63  C29      -11.8890   12.5910   63.2570  C29    5  PJE        0.000000
     64  O8       -13.1050   11.9250   63.5190   O8    5  PJE        0.000000
     65  N5       -12.9730   14.9540   67.3340   N5    5  PJE        0.000000
     66  O7       -10.4780   17.1920   67.5500   O7    5  PJE        0.000000
     67  C         -7.7670   17.5260   66.7970    C    6  010        0.000000
     68  O         -8.8950   17.5920   66.0080    O    6  010        0.000000
     69  C1        -5.7470   18.9490   67.5160   C1    6  010        0.000000
     70  C2        -5.1270   20.1320   67.6570   C2    6  010        0.000000
     71  C0        -5.8170   21.3840   67.2670    C    6  010        0.000000
     72  C4        -7.0600   21.3360   66.7630   C4    6  010        0.000000
     73  C5        -7.7420   20.0310   66.5880   C5    6  010        0.000000
     74  C6        -7.1210   18.8820   66.9500   C6    6  010        0.000000
     75  H         -9.8250    3.3500   71.3630    H    1  02J        0.000000
     76  H0        -8.8830    1.3220   72.7290    H    1  02J        0.000000
     77  H1        -8.5470    1.8450   74.4280    H    1  02J        0.000000
     78  H2       -10.0280    0.8790   74.0540    H    1  02J        0.000000
     79  H        -14.1680   15.5990   65.8670    H    5  PJE        0.000000
     80  H0       -13.1940   17.1860   64.7400    H    5  PJE        0.000000
     81  H1       -12.9780   17.5810   66.4600    H    5  PJE        0.000000
     82  H2       -10.8340   16.5640   64.4820    H    5  PJE        0.000000
     83  H3       -11.1860   18.2720   64.8420    H    5  PJE        0.000000
     84  H4       -13.4980   13.4730   65.2840    H    5  PJE        0.000000
     85  H5       -13.4750   14.6960   63.9750    H    5  PJE        0.000000
     86  H6       -11.0360   14.5200   63.7220    H    5  PJE        0.000000
     87  H7        -9.9610   13.7950   65.7460    H    5  PJE        0.000000
     88  H8       -11.1370   12.3930   65.8950    H    5  PJE        0.000000
     89  H9        -9.1730   12.9280   63.5810    H    5  PJE        0.000000
     90  H10       -9.1300   11.5270   64.7160    H    5  PJE        0.000000
     91  H11      -11.1250   10.7820   63.8880    H    5  PJE        0.000000
     92  H12      -11.9110   13.0210   62.2270    H    5  PJE        0.000000
     93  H13      -13.7650   12.2340   62.8440    H    5  PJE        0.000000
     94  H14      -13.8980   14.8800   67.7880    H    5  PJE        0.000000
     95  H         -4.1190   20.1730   68.0570    H    6  010        0.000000
     96  H0        -5.3160   22.3380   67.3920    H    6  010        0.000000
     97  H1        -7.5700   22.2510   66.4810    H    6  010        0.000000
     98  H2        -5.2340   18.0350   67.8000    H    6  010        0.000000
     99  H3        -8.7460   20.0280   66.1770    H    6  010        0.000000
    100  H4        -7.9720   17.0950   67.8020    H    6  010        0.000000
    101  H5        -7.0560   16.8530   66.2740    H    6  010        0.000000
@<TRIPOS>BOND
    1     1     2  1
    2     1     3  1
    3     1    52  1
    4     3     4  1
    5     3     5  1
    6     3     9  1
    7     5     6  1
    8     5     7  1
    9     5     8  1
   10     9    11  1
   11     9    10  1
   12    11    12  1
   13    11    13  1
   14    13    14  1
   15    13    15  1
   16    13    25  1
   17    15    16  1
   18    15    17  1
   19    15    21  1
   20    17    18  1
   21    17    19  1
   22    17    20  1
   23    21    22  1
   24    21    23  1
   25    21    24  1
   26    25    27  1
   27    25    26  1
   28    27    28  1
   29    27    29  1
   30    29    30  1
   31    29    31  1
   32    29    44  1
   33    31    32  1
   34    31    33  1
   35    31    34  1
   36    34    35  1
   37    34    36  1
   38    34    40  1
   39    36    37  1
   40    36    38  1
   41    36    39  1
   42    40    41  1
   43    40    42  1
   44    40    43  1
   45    44    45  1
   46    44    65  1
   47    46    51  1
   48    46    47  1
   49    46    75  1
   50    47    48  1
   51    47    49  1
   52    48    76  1
   53    48    77  1
   54    48    78  1
   55    49    50  1
   56    50    51  1
   57    51    52  1
   58    52    53  1
   59    54    58  1
   60    54    55  1
   61    54    65  1
   62    54    79  1
   63    55    56  1
   64    55    80  1
   65    55    81  1
   66    56    57  1
   67    56    82  1
   68    56    83  1
   69    57    68  1
   70    57    66  1
   71    58    59  1
   72    58    84  1
   73    58    85  1
   74    59    60  1
   75    59    63  1
   76    59    86  1
   77    60    61  1
   78    60    87  1
   79    60    88  1
   80    61    62  1
   81    61    89  1
   82    61    90  1
   83    62    63  1
   84    62    91  1
   85    63    64  1
   86    63    92  1
   87    64    93  1
   88    65    94  1
   89    67    68  1
   90    67    74  1
   91    67   100  1
   92    67   101  1
   93    69    70  1
   94    69    74  1
   95    69    98  1
   96    70    71  1
   97    70    95  1
   98    71    72  1
   99    71    96  1
  100    72    73  1
  101    72    97  1
  102    73    74  1
  103    73    99  1

@<TRIPOS>SUBSTRUCTURE
1 ****        1 TEMP                        0 ****  **** 0 ROOT
